
Direct Newton iteration for .op point succeeded.
.step vin=10
.step vin=11
.step vin=12
.step vin=13
.step vin=14
.step vin=15
.step vin=16
.step vin=17
.step vin=18
.step vin=19
.step vin=20
.step vin=21
.step vin=22
.step vin=23
.step vin=24
.step vin=25
.step vin=26
.step vin=27
.step vin=28
.step vin=29
.step vin=30
.step vin=31
.step vin=32
.step vin=33
.step vin=34
.step vin=35
.step vin=36
.step vin=37
.step vin=38
.step vin=39
.step vin=40


Measurement: v_polvalue
  step	v(v_pol)
     1	10
     2	11
     3	12
     4	13
     5	14
     6	15
     7	16
     8	17
     9	18
    10	18.9999
    11	19.9999
    12	20.9999
    13	21.9999
    14	22.9999
    15	23.9999
    16	24.9999
    17	25.9999
    18	26.9999
    19	27.9998
    20	28.9998
    21	29.9998
    22	30.9998
    23	31.9998
    24	32.9998
    25	33.9998
    26	34.9998
    27	35.9998
    28	36.9998
    29	37.9997
    30	38.9997
    31	39.9997

Measurement: vgv_pol_voltage
  step	v(vg) - v(v_pol)
     1	-10
     2	-11
     3	-12
     4	-12.9784
     5	-13.0755
     6	-13.0942
     7	-13.105
     8	-13.1126
     9	-13.1185
    10	-13.1233
    11	-13.1274
    12	-13.1309
    13	-13.134
    14	-13.1367
    15	-13.1392
    16	-13.1415
    17	-13.1436
    18	-13.1455
    19	-13.1473
    20	-13.149
    21	-13.1506
    22	-13.1521
    23	-13.1535
    24	-13.1549
    25	-13.1561
    26	-13.1574
    27	-13.1585
    28	-13.1596
    29	-13.1607
    30	-13.1617
    31	-13.1627

Measurement: powerd1
  step	v(v_pol)*i(r1)
     1	1.02718e-010
     2	1.24001e-010
     3	1.47285e-010
     4	2.81446e-005
     5	0.00129434
     6	0.00285871
     7	0.00463196
     8	0.00660846
     9	0.00878656
    10	0.0111655
    11	0.0137451
    12	0.0165249
    13	0.019505
    14	0.0226852
    15	0.0260655
    16	0.0296458
    17	0.0334261
    18	0.0374065
    19	0.0415868
    20	0.0459671
    21	0.0505473
    22	0.0553276
    23	0.0603077
    24	0.0654879
    25	0.0708679
    26	0.076448
    27	0.082228
    28	0.0882079
    29	0.0943877
    30	0.100768
    31	0.107347


Date: Thu Nov 21 13:22:51 2024
Total elapsed time: 1.318 seconds.

tnom = 27
temp = 27
method = modified trap
totiter = 2128
traniter = 2093
tranpoints = 1046
accept = 1046
rejected = 0
matrix size = 18
fillins = 8
solver = Normal
Matrix Compiler1: 1.29 KB object code size  0.2/0.1/[0.1]
Matrix Compiler2: off  [0.1]/0.2/0.2

